examples/feeders/18_SE001_1/007_transformadores.dss
New Transformer.TRF_15_1106A phases=1 windings=2 buses=[MRT_236801TRF_15_1106A.2 ET15_1106.1.4] conns=[Wye Wye] kvs=[13.3367912182804 0.22] kvas=[5 5] %loadloss=2.1 %noloadloss=0.7
New Linecode.LC_MRT_TRF_15_1106A_1 nphases=1 basefreq=60 r1=15000 x1=0 units=km normamps=0
New Linecode.LC_MRT_TRF_15_1106A_2 nphases=2 basefreq=60 r1=15000 x1=0 units=km normamps=0
New Linecode.LC_MRT_TRF_15_1106A_3 nphases=3 basefreq=60 r1=15000 x1=0 units=km normamps=0
New Linecode.LC_MRT_TRF_15_1106A_4 nphases=4 basefreq=60 r1=15000 x1=0 units=km normamps=0
New Line.Resist_MTR_TRF_15_1106A phases=1 bus1=236801.2 bus2= MRT_236801TRF_15_1106A.2 linecode=LC_MRT_TRF_15_1106A_1 length=0.001 units=km
New Reactor.TRF_15_1106A_R phases=1 bus1=ET15_1106.4 R=15 X=0 basefreq=60
New Transformer.TRF_15_1107A phases=1 windings=3 buses=[MRT_154851TRF_15_1107A.2 ET15_1107.1.4 ET15_1107.4.2] conns=[Wye Wye Wye] kvs=[13.3367912182804 0.22 0.22] kvas=[10 10 10] %loadloss=1.95 %noloadloss=0.5
New Linecode.LC_MRT_TRF_15_1107A_1 nphases=1 basefreq=60 r1=15000 x1=0 units=km normamps=0
New Linecode.LC_MRT_TRF_15_1107A_2 nphases=2 basefreq=60 r1=15000 x1=0 units=km normamps=0
New Linecode.LC_MRT_TRF_15_1107A_3 nphases=3 basefreq=60 r1=15000 x1=0 units=km normamps=0
New Linecode.LC_MRT_TRF_15_1107A_4 nphases=4 basefreq=60 r1=15000 x1=0 units=km normamps=0
New Line.Resist_MTR_TRF_15_1107A phases=1 bus1=154851.2 bus2= MRT_154851TRF_15_1107A.2 linecode=LC_MRT_TRF_15_1107A_1 length=0.001 units=km
New Reactor.TRF_15_1107A_R phases=1 bus1=ET15_1107.4 R=15 X=0 basefreq=60
New Transformer.TRF_15_1108A phases=1 windings=3 buses=[MRT_210301TRF_15_1108A.2 ET15_1108.1.4 ET15_1108.4.2] conns=[Wye Wye Wye] kvs=[13.3367912182804 0.22 0.22] kvas=[10 10 10] %loadloss=1.95 %noloadloss=0.5
New Linecode.LC_MRT_TRF_15_1108A_1 nphases=1 basefreq=60 r1=15000 x1=0 units=km normamps=0
New Linecode.LC_MRT_TRF_15_1108A_2 nphases=2 basefreq=60 r1=15000 x1=0 units=km normamps=0
New Linecode.LC_MRT_TRF_15_1108A_3 nphases=3 basefreq=60 r1=15000 x1=0 units=km normamps=0
New Linecode.LC_MRT_TRF_15_1108A_4 nphases=4 basefreq=60 r1=15000 x1=0 units=km normamps=0
New Line.Resist_MTR_TRF_15_1108A phases=1 bus1=210301.2 bus2= MRT_210301TRF_15_1108A.2 linecode=LC_MRT_TRF_15_1108A_1 length=0.001 units=km
New Reactor.TRF_15_1108A_R phases=1 bus1=ET15_1108.4 R=15 X=0 basefreq=60
New Transformer.TRF_15_1391A phases=1 windings=3 buses=[MRT_297981TRF_15_1391A.3 ET15_1391.1.4 ET15_1391.4.2] conns=[Wye Wye Wye] kvs=[13.3367912182804 0.22 0.22] kvas=[10 10 10] %loadloss=1.95 %noloadloss=0.5
New Linecode.LC_MRT_TRF_15_1391A_1 nphases=1 basefreq=60 r1=15000 x1=0 units=km normamps=0
New Linecode.LC_MRT_TRF_15_1391A_2 nphases=2 basefreq=60 r1=15000 x1=0 units=km normamps=0
New Linecode.LC_MRT_TRF_15_1391A_3 nphases=3 basefreq=60 r1=15000 x1=0 units=km normamps=0
New Linecode.LC_MRT_TRF_15_1391A_4 nphases=4 basefreq=60 r1=15000 x1=0 units=km normamps=0
New Line.Resist_MTR_TRF_15_1391A phases=1 bus1=297981.3 bus2= MRT_297981TRF_15_1391A.3 linecode=LC_MRT_TRF_15_1391A_1 length=0.001 units=km
New Reactor.TRF_15_1391A_R phases=1 bus1=ET15_1391.4 R=15 X=0 basefreq=60
New Transformer.TRF_15_1418A phases=1 windings=3 buses=[MRT_108261TRF_15_1418A.3 ET15_1418.1.4 ET15_1418.4.2] conns=[Wye Wye Wye] kvs=[13.3367912182804 0.22 0.22] kvas=[25 25 25] %loadloss=1.56 %noloadloss=0.36
New Linecode.LC_MRT_TRF_15_1418A_1 nphases=1 basefreq=60 r1=15000 x1=0 units=km normamps=0
New Linecode.LC_MRT_TRF_15_1418A_2 nphases=2 basefreq=60 r1=15000 x1=0 units=km normamps=0
New Linecode.LC_MRT_TRF_15_1418A_3 nphases=3 basefreq=60 r1=15000 x1=0 units=km normamps=0
New Linecode.LC_MRT_TRF_15_1418A_4 nphases=4 basefreq=60 r1=15000 x1=0 units=km normamps=0
New Line.Resist_MTR_TRF_15_1418A phases=1 bus1=108261.3 bus2= MRT_108261TRF_15_1418A.3 linecode=LC_MRT_TRF_15_1418A_1 length=0.001 units=km
New Reactor.TRF_15_1418A_R phases=1 bus1=ET15_1418.4 R=15 X=0 basefreq=60
New Transformer.TRF_15_1682A phases=1 windings=3 buses=[MRT_210331TRF_15_1682A.2 ET15_1682.1.4 ET15_1682.4.2] conns=[Wye Wye Wye] kvs=[13.3367912182804 0.22 0.22] kvas=[25 25 25] %loadloss=1.56 %noloadloss=0.36
New Linecode.LC_MRT_TRF_15_1682A_1 nphases=1 basefreq=60 r1=15000 x1=0 units=km normamps=0
New Linecode.LC_MRT_TRF_15_1682A_2 nphases=2 basefreq=60 r1=15000 x1=0 units=km normamps=0
New Linecode.LC_MRT_TRF_15_1682A_3 nphases=3 basefreq=60 r1=15000 x1=0 units=km normamps=0
New Linecode.LC_MRT_TRF_15_1682A_4 nphases=4 basefreq=60 r1=15000 x1=0 units=km normamps=0
New Line.Resist_MTR_TRF_15_1682A phases=1 bus1=210331.2 bus2= MRT_210331TRF_15_1682A.2 linecode=LC_MRT_TRF_15_1682A_1 length=0.001 units=km
New Reactor.TRF_15_1682A_R phases=1 bus1=ET15_1682.4 R=15 X=0 basefreq=60
New Transformer.TRF_15_1828A phases=1 windings=3 buses=[MRT_210261TRF_15_1828A.2 ET15_1828.1.4 ET15_1828.4.2] conns=[Wye Wye Wye] kvs=[13.3367912182804 0.22 0.22] kvas=[10 10 10] %loadloss=1.95 %noloadloss=0.5
New Linecode.LC_MRT_TRF_15_1828A_1 nphases=1 basefreq=60 r1=15000 x1=0 units=km normamps=0
New Linecode.LC_MRT_TRF_15_1828A_2 nphases=2 basefreq=60 r1=15000 x1=0 units=km normamps=0
New Linecode.LC_MRT_TRF_15_1828A_3 nphases=3 basefreq=60 r1=15000 x1=0 units=km normamps=0
New Linecode.LC_MRT_TRF_15_1828A_4 nphases=4 basefreq=60 r1=15000 x1=0 units=km normamps=0
New Line.Resist_MTR_TRF_15_1828A phases=1 bus1=210261.2 bus2= MRT_210261TRF_15_1828A.2 linecode=LC_MRT_TRF_15_1828A_1 length=0.001 units=km
New Reactor.TRF_15_1828A_R phases=1 bus1=ET15_1828.4 R=15 X=0 basefreq=60
New Transformer.TRF_15_1844A phases=1 windings=3 buses=[MRT_154841TRF_15_1844A.2 ET15_1844.1.4 ET15_1844.4.2] conns=[Wye Wye Wye] kvs=[13.3367912182804 0.22 0.22] kvas=[10 10 10] %loadloss=1.95 %noloadloss=0.5
New Linecode.LC_MRT_TRF_15_1844A_1 nphases=1 basefreq=60 r1=15000 x1=0 units=km normamps=0
New Linecode.LC_MRT_TRF_15_1844A_2 nphases=2 basefreq=60 r1=15000 x1=0 units=km normamps=0
New Linecode.LC_MRT_TRF_15_1844A_3 nphases=3 basefreq=60 r1=15000 x1=0 units=km normamps=0
New Linecode.LC_MRT_TRF_15_1844A_4 nphases=4 basefreq=60 r1=15000 x1=0 units=km normamps=0
New Line.Resist_MTR_TRF_15_1844A phases=1 bus1=154841.2 bus2= MRT_154841TRF_15_1844A.2 linecode=LC_MRT_TRF_15_1844A_1 length=0.001 units=km
New Reactor.TRF_15_1844A_R phases=1 bus1=ET15_1844.4 R=15 X=0 basefreq=60
New Transformer.TRF_15_1927A phases=3 windings=2 buses=[165851.1.2.3 ET15_1927.1.2.3.4] conns=[Delta Wye] kvs=[23.1 0.38] kvas=[45 45] %loadloss=1.866667 %noloadloss=0.477777
New Reactor.TRF_15_1927A_R phases=1 bus1=ET15_1927.4 R=15 X=0 basefreq=60
New Transformer.TRF_15_2257A phases=1 windings=3 buses=[MRT_236831TRF_15_2257A.2 ET15_2257.1.4 ET15_2257.4.2] conns=[Wye Wye Wye] kvs=[13.3367912182804 0.22 0.22] kvas=[10 10 10] %loadloss=1.95 %noloadloss=0.5
New Linecode.LC_MRT_TRF_15_2257A_1 nphases=1 basefreq=60 r1=15000 x1=0 units=km normamps=0
New Linecode.LC_MRT_TRF_15_2257A_2 nphases=2 basefreq=60 r1=15000 x1=0 units=km normamps=0
New Linecode.LC_MRT_TRF_15_2257A_3 nphases=3 basefreq=60 r1=15000 x1=0 units=km normamps=0
New Linecode.LC_MRT_TRF_15_2257A_4 nphases=4 basefreq=60 r1=15000 x1=0 units=km normamps=0
New Line.Resist_MTR_TRF_15_2257A phases=1 bus1=236831.2 bus2= MRT_236831TRF_15_2257A.2 linecode=LC_MRT_TRF_15_2257A_1 length=0.001 units=km
New Reactor.TRF_15_2257A_R phases=1 bus1=ET15_2257.4 R=15 X=0 basefreq=60
New Transformer.TRF_15_2636A phases=1 windings=3 buses=[MRT_366061TRF_15_2636A.2 ET15_2636.1.4 ET15_2636.4.2] conns=[Wye Wye Wye] kvs=[13.3367912182804 0.22 0.22] kvas=[10 10 10] %loadloss=1.95 %noloadloss=0.5
New Linecode.LC_MRT_TRF_15_2636A_1 nphases=1 basefreq=60 r1=15000 x1=0 units=km normamps=0
New Linecode.LC_MRT_TRF_15_2636A_2 nphases=2 basefreq=60 r1=15000 x1=0 units=km normamps=0
New Linecode.LC_MRT_TRF_15_2636A_3 nphases=3 basefreq=60 r1=15000 x1=0 units=km normamps=0
New Linecode.LC_MRT_TRF_15_2636A_4 nphases=4 basefreq=60 r1=15000 x1=0 units=km normamps=0
New Line.Resist_MTR_TRF_15_2636A phases=1 bus1=366061.2 bus2= MRT_366061TRF_15_2636A.2 linecode=LC_MRT_TRF_15_2636A_1 length=0.001 units=km
New Reactor.TRF_15_2636A_R phases=1 bus1=ET15_2636.4 R=15 X=0 basefreq=60
New Transformer.TRF_15_3040A phases=3 windings=2 buses=[541181.1.2.3 ET15_3040.1.2.3.4] conns=[Delta Wye] kvs=[23.1 0.38] kvas=[30 30] %loadloss=2.1 %noloadloss=0.533333
New Reactor.TRF_15_3040A_R phases=1 bus1=ET15_3040.4 R=15 X=0 basefreq=60
New Transformer.TRF_15_3260A phases=1 windings=3 buses=[MRT_297941TRF_15_3260A.3 ET15_3260.1.4 ET15_3260.4.2] conns=[Wye Wye Wye] kvs=[13.3367912182804 0.22 0.22] kvas=[25 25 25] %loadloss=1.56 %noloadloss=0.36
New Linecode.LC_MRT_TRF_15_3260A_1 nphases=1 basefreq=60 r1=15000 x1=0 units=km normamps=0
New Linecode.LC_MRT_TRF_15_3260A_2 nphases=2 basefreq=60 r1=15000 x1=0 units=km normamps=0
New Linecode.LC_MRT_TRF_15_3260A_3 nphases=3 basefreq=60 r1=15000 x1=0 units=km normamps=0
New Linecode.LC_MRT_TRF_15_3260A_4 nphases=4 basefreq=60 r1=15000 x1=0 units=km normamps=0
New Line.Resist_MTR_TRF_15_3260A phases=1 bus1=297941.3 bus2= MRT_297941TRF_15_3260A.3 linecode=LC_MRT_TRF_15_3260A_1 length=0.001 units=km
New Reactor.TRF_15_3260A_R phases=1 bus1=ET15_3260.4 R=15 X=0 basefreq=60
New Transformer.TRF_15_3285A phases=3 windings=2 buses=[233341.1.2.3 ET15_3285.1.2.3.4] conns=[Delta Wye] kvs=[23.1 0.38] kvas=[30 30] %loadloss=2.1 %noloadloss=0.533333
New Reactor.TRF_15_3285A_R phases=1 bus1=ET15_3285.4 R=15 X=0 basefreq=60
New Transformer.TRF_15_3728A phases=1 windings=2 buses=[MRT_563571TRF_15_3728A.2 ET15_3728.1.4] conns=[Wye Wye] kvs=[13.3367912182804 0.22] kvas=[5 5] %loadloss=2.1 %noloadloss=0.7
New Linecode.LC_MRT_TRF_15_3728A_1 nphases=1 basefreq=60 r1=15000 x1=0 units=km normamps=0
New Linecode.LC_MRT_TRF_15_3728A_2 nphases=2 basefreq=60 r1=15000 x1=0 units=km normamps=0
New Linecode.LC_MRT_TRF_15_3728A_3 nphases=3 basefreq=60 r1=15000 x1=0 units=km normamps=0
New Linecode.LC_MRT_TRF_15_3728A_4 nphases=4 basefreq=60 r1=15000 x1=0 units=km normamps=0
New Line.Resist_MTR_TRF_15_3728A phases=1 bus1=563571.2 bus2= MRT_563571TRF_15_3728A.2 linecode=LC_MRT_TRF_15_3728A_1 length=0.001 units=km
New Reactor.TRF_15_3728A_R phases=1 bus1=ET15_3728.4 R=15 X=0 basefreq=60
New Transformer.TRF_15_4078A phases=3 windings=2 buses=[650581.1.2.3 ET15_4078.1.2.3.4] conns=[Delta Wye] kvs=[23.1 0.38] kvas=[45 45] %loadloss=1.866667 %noloadloss=0.477777
New Reactor.TRF_15_4078A_R phases=1 bus1=ET15_4078.4 R=15 X=0 basefreq=60
New Transformer.TRF_15_4154A phases=1 windings=3 buses=[MRT_650441TRF_15_4154A.2 ET15_4154.1.4 ET15_4154.4.2] conns=[Wye Wye Wye] kvs=[13.3367912182804 0.22 0.22] kvas=[25 25 25] %loadloss=1.56 %noloadloss=0.36
New Linecode.LC_MRT_TRF_15_4154A_1 nphases=1 basefreq=60 r1=15000 x1=0 units=km normamps=0
New Linecode.LC_MRT_TRF_15_4154A_2 nphases=2 basefreq=60 r1=15000 x1=0 units=km normamps=0
New Linecode.LC_MRT_TRF_15_4154A_3 nphases=3 basefreq=60 r1=15000 x1=0 units=km normamps=0
New Linecode.LC_MRT_TRF_15_4154A_4 nphases=4 basefreq=60 r1=15000 x1=0 units=km normamps=0
New Line.Resist_MTR_TRF_15_4154A phases=1 bus1=650441.2 bus2= MRT_650441TRF_15_4154A.2 linecode=LC_MRT_TRF_15_4154A_1 length=0.001 units=km
New Reactor.TRF_15_4154A_R phases=1 bus1=ET15_4154.4 R=15 X=0 basefreq=60
New Transformer.TRF_15_4258A phases=3 windings=2 buses=[96771.1.2.3 ET15_4258.1.2.3.4] conns=[Delta Wye] kvs=[23.1 0.38] kvas=[112.5 112.5] %loadloss=1.475556 %noloadloss=0.377777
New Reactor.TRF_15_4258A_R phases=1 bus1=ET15_4258.4 R=15 X=0 basefreq=60
New Transformer.TRF_15_5027A phases=3 windings=2 buses=[744662.1.2.3 ET15_5027.1.2.3.4] conns=[Delta Wye] kvs=[23.1 0.38] kvas=[225 225] %loadloss=1.28 %noloadloss=0.322222
New Reactor.TRF_15_5027A_R phases=1 bus1=ET15_5027.4 R=15 X=0 basefreq=60
New Transformer.TRF_15_5184A phases=1 windings=3 buses=[MRT_731731TRF_15_5184A.2 ET15_5184.1.4 ET15_5184.4.2] conns=[Wye Wye Wye] kvs=[13.3367912182804 0.22 0.22] kvas=[10 10 10] %loadloss=1.95 %noloadloss=0.5
New Linecode.LC_MRT_TRF_15_5184A_1 nphases=1 basefreq=60 r1=15000 x1=0 units=km normamps=0
New Linecode.LC_MRT_TRF_15_5184A_2 nphases=2 basefreq=60 r1=15000 x1=0 units=km normamps=0
New Linecode.LC_MRT_TRF_15_5184A_3 nphases=3 basefreq=60 r1=15000 x1=0 units=km normamps=0
New Linecode.LC_MRT_TRF_15_5184A_4 nphases=4 basefreq=60 r1=15000 x1=0 units=km normamps=0
New Line.Resist_MTR_TRF_15_5184A phases=1 bus1=731731.2 bus2= MRT_731731TRF_15_5184A.2 linecode=LC_MRT_TRF_15_5184A_1 length=0.001 units=km
New Reactor.TRF_15_5184A_R phases=1 bus1=ET15_5184.4 R=15 X=0 basefreq=60
New Transformer.TRF_15_6237A phases=1 windings=3 buses=[MRT_108211TRF_15_6237A.1 ET15_6237.1.4 ET15_6237.4.2] conns=[Wye Wye Wye] kvs=[13.3367912182804 0.22 0.22] kvas=[10 10 10] %loadloss=1.95 %noloadloss=0.5
New Linecode.LC_MRT_TRF_15_6237A_1 nphases=1 basefreq=60 r1=15000 x1=0 units=km normamps=0
New Linecode.LC_MRT_TRF_15_6237A_2 nphases=2 basefreq=60 r1=15000 x1=0 units=km normamps=0
New Linecode.LC_MRT_TRF_15_6237A_3 nphases=3 basefreq=60 r1=15000 x1=0 units=km normamps=0
New Linecode.LC_MRT_TRF_15_6237A_4 nphases=4 basefreq=60 r1=15000 x1=0 units=km normamps=0
New Line.Resist_MTR_TRF_15_6237A phases=1 bus1=108211.1 bus2= MRT_108211TRF_15_6237A.1 linecode=LC_MRT_TRF_15_6237A_1 length=0.001 units=km
New Reactor.TRF_15_6237A_R phases=1 bus1=ET15_6237.4 R=15 X=0 basefreq=60
New Transformer.TRF_15_6453A phases=3 windings=2 buses=[816661.1.2.3 ET15_6453.1.2.3.4] conns=[Delta Wye] kvs=[23.1 0.38] kvas=[225 225] %loadloss=1.28 %noloadloss=0.322222
New Reactor.TRF_15_6453A_R phases=1 bus1=ET15_6453.4 R=15 X=0 basefreq=60
New Transformer.TRF_15_803A phases=1 windings=3 buses=[298981.2.3 ET15_803.1.4 ET15_803.4.2] conns=[Delta Wye Wye] kvs=[23.1 0.22 0.22] kvas=[20 20 20] %loadloss=2.1 %noloadloss=0.5
New Reactor.TRF_15_803A_R phases=1 bus1=ET15_803.4 R=15 X=0 basefreq=60
New Transformer.TRF_15_804A phases=1 windings=3 buses=[812861.2.3 ET15_804.1.4 ET15_804.4.2] conns=[Delta Wye Wye] kvs=[23.1 0.22 0.22] kvas=[20 20 20] %loadloss=2.1 %noloadloss=0.5
New Reactor.TRF_15_804A_R phases=1 bus1=ET15_804.4 R=15 X=0 basefreq=60
New Transformer.TRF_15_806A phases=1 windings=3 buses=[233311.2.3 ET15_806.1.4 ET15_806.4.2] conns=[Delta Wye Wye] kvs=[23.1 0.22 0.22] kvas=[15 15 15] %loadloss=1.933333 %noloadloss=0.5
New Reactor.TRF_15_806A_R phases=1 bus1=ET15_806.4 R=15 X=0 basefreq=60
New Transformer.TRF_17_1065A phases=3 windings=2 buses=[656241.1.2.3 ET17_1065.1.2.3.4] conns=[Delta Wye] kvs=[23.1 0.38] kvas=[45 45] %loadloss=1.866667 %noloadloss=0.477777
New Reactor.TRF_17_1065A_R phases=1 bus1=ET17_1065.4 R=15 X=0 basefreq=60
New Transformer.TRF_17_1456A phases=1 windings=3 buses=[MRT_183321TRF_17_1456A.3 ET17_1456.1.4 ET17_1456.4.2] conns=[Wye Wye Wye] kvs=[13.3367912182804 0.22 0.22] kvas=[15 15 15] %loadloss=1.766667 %noloadloss=0.433333
New Linecode.LC_MRT_TRF_17_1456A_1 nphases=1 basefreq=60 r1=15000 x1=0 units=km normamps=0
New Linecode.LC_MRT_TRF_17_1456A_2 nphases=2 basefreq=60 r1=15000 x1=0 units=km normamps=0
New Linecode.LC_MRT_TRF_17_1456A_3 nphases=3 basefreq=60 r1=15000 x1=0 units=km normamps=0
New Linecode.LC_MRT_TRF_17_1456A_4 nphases=4 basefreq=60 r1=15000 x1=0 units=km normamps=0
New Line.Resist_MTR_TRF_17_1456A phases=1 bus1=183321.3 bus2= MRT_183321TRF_17_1456A.3 linecode=LC_MRT_TRF_17_1456A_1 length=0.001 units=km
New Reactor.TRF_17_1456A_R phases=1 bus1=ET17_1456.4 R=15 X=0 basefreq=60
New Transformer.TRF_17_1582A phases=1 windings=3 buses=[287511.2.3 ET17_1582.1.4 ET17_1582.4.2] conns=[Delta Wye Wye] kvs=[23.1 0.22 0.22] kvas=[10 10 10] %loadloss=1.15 %noloadloss=0.4
New Reactor.TRF_17_1582A_R phases=1 bus1=ET17_1582.4 R=15 X=0 basefreq=60
New Transformer.TRF_17_1608A phases=3 windings=2 buses=[300921.1.2.3 ET17_1608.1.2.3.4] conns=[Delta Wye] kvs=[23.1 0.38] kvas=[45 45] %loadloss=1.866667 %noloadloss=0.477777
New Reactor.TRF_17_1608A_R phases=1 bus1=ET17_1608.4 R=15 X=0 basefreq=60
New Transformer.TRF_17_1709A phases=1 windings=3 buses=[MRT_297181TRF_17_1709A.1 ET17_1709.1.4 ET17_1709.4.2] conns=[Wye Wye Wye] kvs=[13.3367912182804 0.22 0.22] kvas=[10 10 10] %loadloss=1.95 %noloadloss=0.5
New Linecode.LC_MRT_TRF_17_1709A_1 nphases=1 basefreq=60 r1=15000 x1=0 units=km normamps=0
New Linecode.LC_MRT_TRF_17_1709A_2 nphases=2 basefreq=60 r1=15000 x1=0 units=km normamps=0
New Linecode.LC_MRT_TRF_17_1709A_3 nphases=3 basefreq=60 r1=15000 x1=0 units=km normamps=0
New Linecode.LC_MRT_TRF_17_1709A_4 nphases=4 basefreq=60 r1=15000 x1=0 units=km normamps=0
New Line.Resist_MTR_TRF_17_1709A phases=1 bus1=297181.1 bus2= MRT_297181TRF_17_1709A.1 linecode=LC_MRT_TRF_17_1709A_1 length=0.001 units=km
New Reactor.TRF_17_1709A_R phases=1 bus1=ET17_1709.4 R=15 X=0 basefreq=60
New Transformer.TRF_17_1754A phases=1 windings=3 buses=[MRT_292961TRF_17_1754A.1 ET17_1754.1.4 ET17_1754.4.2] conns=[Wye Wye Wye] kvs=[13.3367912182804 0.22 0.22] kvas=[5 5 5] %loadloss=2.1 %noloadloss=0.7
New Linecode.LC_MRT_TRF_17_1754A_1 nphases=1 basefreq=60 r1=15000 x1=0 units=km normamps=0
New Linecode.LC_MRT_TRF_17_1754A_2 nphases=2 basefreq=60 r1=15000 x1=0 units=km normamps=0
New Linecode.LC_MRT_TRF_17_1754A_3 nphases=3 basefreq=60 r1=15000 x1=0 units=km normamps=0
New Linecode.LC_MRT_TRF_17_1754A_4 nphases=4 basefreq=60 r1=15000 x1=0 units=km normamps=0
New Line.Resist_MTR_TRF_17_1754A phases=1 bus1=292961.1 bus2= MRT_292961TRF_17_1754A.1 linecode=LC_MRT_TRF_17_1754A_1 length=0.001 units=km
New Reactor.TRF_17_1754A_R phases=1 bus1=ET17_1754.4 R=15 X=0 basefreq=60
New Transformer.TRF_17_2080A phases=1 windings=3 buses=[MRT_327321TRF_17_2080A.3 ET17_2080.1.4 ET17_2080.4.2] conns=[Wye Wye Wye] kvs=[13.3367912182804 0.22 0.22] kvas=[15 15 15] %loadloss=1.766667 %noloadloss=0.433333
New Linecode.LC_MRT_TRF_17_2080A_1 nphases=1 basefreq=60 r1=15000 x1=0 units=km normamps=0
New Linecode.LC_MRT_TRF_17_2080A_2 nphases=2 basefreq=60 r1=15000 x1=0 units=km normamps=0
New Linecode.LC_MRT_TRF_17_2080A_3 nphases=3 basefreq=60 r1=15000 x1=0 units=km normamps=0
New Linecode.LC_MRT_TRF_17_2080A_4 nphases=4 basefreq=60 r1=15000 x1=0 units=km normamps=0
New Line.Resist_MTR_TRF_17_2080A phases=1 bus1=327321.3 bus2= MRT_327321TRF_17_2080A.3 linecode=LC_MRT_TRF_17_2080A_1 length=0.001 units=km
New Reactor.TRF_17_2080A_R phases=1 bus1=ET17_2080.4 R=15 X=0 basefreq=60
New Transformer.TRF_17_2107A phases=1 windings=3 buses=[MRT_801601TRF_17_2107A.3 ET17_2107.1.4 ET17_2107.4.2] conns=[Wye Wye Wye] kvs=[13.3367912182804 0.22 0.22] kvas=[15 15 15] %loadloss=1.766667 %noloadloss=0.433333
New Linecode.LC_MRT_TRF_17_2107A_1 nphases=1 basefreq=60 r1=15000 x1=0 units=km normamps=0
New Linecode.LC_MRT_TRF_17_2107A_2 nphases=2 basefreq=60 r1=15000 x1=0 units=km normamps=0
New Linecode.LC_MRT_TRF_17_2107A_3 nphases=3 basefreq=60 r1=15000 x1=0 units=km normamps=0
New Linecode.LC_MRT_TRF_17_2107A_4 nphases=4 basefreq=60 r1=15000 x1=0 units=km normamps=0
New Line.Resist_MTR_TRF_17_2107A phases=1 bus1=801601.3 bus2= MRT_801601TRF_17_2107A.3 linecode=LC_MRT_TRF_17_2107A_1 length=0.001 units=km
New Reactor.TRF_17_2107A_R phases=1 bus1=ET17_2107.4 R=15 X=0 basefreq=60
New Transformer.TRF_17_2127A phases=3 windings=2 buses=[183491.1.2.3 ET17_2127.1.2.3.4] conns=[Delta Wye] kvs=[23.1 0.38] kvas=[15 15] %loadloss=2.5 %noloadloss=0.633333
New Reactor.TRF_17_2127A_R phases=1 bus1=ET17_2127.4 R=15 X=0 basefreq=60
New Transformer.TRF_17_2137A phases=1 windings=3 buses=[MRT_656161TRF_17_2137A.1 ET17_2137.1.4 ET17_2137.4.2] conns=[Wye Wye Wye] kvs=[13.3367912182804 0.22 0.22] kvas=[15 15 15] %loadloss=1.766667 %noloadloss=0.433333
New Linecode.LC_MRT_TRF_17_2137A_1 nphases=1 basefreq=60 r1=15000 x1=0 units=km normamps=0
New Linecode.LC_MRT_TRF_17_2137A_2 nphases=2 basefreq=60 r1=15000 x1=0 units=km normamps=0
New Linecode.LC_MRT_TRF_17_2137A_3 nphases=3 basefreq=60 r1=15000 x1=0 units=km normamps=0
New Linecode.LC_MRT_TRF_17_2137A_4 nphases=4 basefreq=60 r1=15000 x1=0 units=km normamps=0
New Line.Resist_MTR_TRF_17_2137A phases=1 bus1=656161.1 bus2= MRT_656161TRF_17_2137A.1 linecode=LC_MRT_TRF_17_2137A_1 length=0.001 units=km
New Reactor.TRF_17_2137A_R phases=1 bus1=ET17_2137.4 R=15 X=0 basefreq=60
New Transformer.TRF_17_23A phases=3 windings=2 buses=[662151.1.2.3 ET17_23.1.2.3.4] conns=[Delta Wye] kvs=[23.1 0.38] kvas=[30 30] %loadloss=2.1 %noloadloss=0.533333
New Reactor.TRF_17_23A_R phases=1 bus1=ET17_23.4 R=15 X=0 basefreq=60
New Transformer.TRF_17_2397A phases=3 windings=2 buses=[359811.1.2.3 ET17_2397.1.2.3.4] conns=[Delta Wye] kvs=[23.1 0.38] kvas=[45 45] %loadloss=1.866667 %noloadloss=0.477777
New Reactor.TRF_17_2397A_R phases=1 bus1=ET17_2397.4 R=15 X=0 basefreq=60
New Transformer.TRF_17_24A phases=3 windings=2 buses=[245091.1.2.3 ET17_24.1.2.3.4] conns=[Delta Wye] kvs=[23.1 0.38] kvas=[45 45] %loadloss=1.866667 %noloadloss=0.477777
New Reactor.TRF_17_24A_R phases=1 bus1=ET17_24.4 R=15 X=0 basefreq=60
New Transformer.TRF_17_240A phases=3 windings=2 buses=[244201.1.2.3 ET17_240.1.2.3.4] conns=[Delta Wye] kvs=[23.1 0.38] kvas=[45 45] %loadloss=1.866667 %noloadloss=0.477777
New Reactor.TRF_17_240A_R phases=1 bus1=ET17_240.4 R=15 X=0 basefreq=60
New Transformer.TRF_17_2424A phases=1 windings=3 buses=[MRT_764342TRF_17_2424A.3 ET17_2424.1.4 ET17_2424.4.2] conns=[Wye Wye Wye] kvs=[13.3367912182804 0.22 0.22] kvas=[10 10 10] %loadloss=1.95 %noloadloss=0.5
New Linecode.LC_MRT_TRF_17_2424A_1 nphases=1 basefreq=60 r1=15000 x1=0 units=km normamps=0
New Linecode.LC_MRT_TRF_17_2424A_2 nphases=2 basefreq=60 r1=15000 x1=0 units=km normamps=0
New Linecode.LC_MRT_TRF_17_2424A_3 nphases=3 basefreq=60 r1=15000 x1=0 units=km normamps=0
New Linecode.LC_MRT_TRF_17_2424A_4 nphases=4 basefreq=60 r1=15000 x1=0 units=km normamps=0
New Line.Resist_MTR_TRF_17_2424A phases=1 bus1=764342.3 bus2= MRT_764342TRF_17_2424A.3 linecode=LC_MRT_TRF_17_2424A_1 length=0.001 units=km
New Reactor.TRF_17_2424A_R phases=1 bus1=ET17_2424.4 R=15 X=0 basefreq=60
New Transformer.TRF_17_25A phases=1 windings=3 buses=[216681.1.2 ET17_25.1.4 ET17_25.4.2] conns=[Delta Wye Wye] kvs=[23.1 0.22 0.22] kvas=[10 10 10] %loadloss=1.15 %noloadloss=0.4
New Reactor.TRF_17_25A_R phases=1 bus1=ET17_25.4 R=15 X=0 basefreq=60
New Transformer.TRF_17_2500A phases=1 windings=3 buses=[MRT_368551TRF_17_2500A.1 ET17_2500.1.4 ET17_2500.4.2] conns=[Wye Wye Wye] kvs=[13.3367912182804 0.22 0.22] kvas=[15 15 15] %loadloss=1.766667 %noloadloss=0.433333
New Linecode.LC_MRT_TRF_17_2500A_1 nphases=1 basefreq=60 r1=15000 x1=0 units=km normamps=0
New Linecode.LC_MRT_TRF_17_2500A_2 nphases=2 basefreq=60 r1=15000 x1=0 units=km normamps=0
New Linecode.LC_MRT_TRF_17_2500A_3 nphases=3 basefreq=60 r1=15000 x1=0 units=km normamps=0
New Linecode.LC_MRT_TRF_17_2500A_4 nphases=4 basefreq=60 r1=15000 x1=0 units=km normamps=0
New Line.Resist_MTR_TRF_17_2500A phases=1 bus1=368551.1 bus2= MRT_368551TRF_17_2500A.1 linecode=LC_MRT_TRF_17_2500A_1 length=0.001 units=km
New Reactor.TRF_17_2500A_R phases=1 bus1=ET17_2500.4 R=15 X=0 basefreq=60
New Transformer.TRF_17_2640A phases=1 windings=3 buses=[MRT_419871TRF_17_2640A.3 ET17_2640.1.4 ET17_2640.4.2] conns=[Wye Wye Wye] kvs=[13.3367912182804 0.22 0.22] kvas=[10 10 10] %loadloss=1.95 %noloadloss=0.5
New Linecode.LC_MRT_TRF_17_2640A_1 nphases=1 basefreq=60 r1=15000 x1=0 units=km normamps=0
New Linecode.LC_MRT_TRF_17_2640A_2 nphases=2 basefreq=60 r1=15000 x1=0 units=km normamps=0
New Linecode.LC_MRT_TRF_17_2640A_3 nphases=3 basefreq=60 r1=15000 x1=0 units=km normamps=0
New Linecode.LC_MRT_TRF_17_2640A_4 nphases=4 basefreq=60 r1=15000 x1=0 units=km normamps=0
New Line.Resist_MTR_TRF_17_2640A phases=1 bus1=419871.3 bus2= MRT_419871TRF_17_2640A.3 linecode=LC_MRT_TRF_17_2640A_1 length=0.001 units=km
New Reactor.TRF_17_2640A_R phases=1 bus1=ET17_2640.4 R=15 X=0 basefreq=60
New Transformer.TRF_17_3247A phases=3 windings=2 buses=[620701.1.2.3 ET17_3247.1.2.3.4] conns=[Delta Wye] kvs=[23.1 0.38] kvas=[15 15] %loadloss=2.5 %noloadloss=0.633333
New Reactor.TRF_17_3247A_R phases=1 bus1=ET17_3247.4 R=15 X=0 basefreq=60
New Transformer.TRF_17_3280A phases=1 windings=3 buses=[MRT_14241TRF_17_3280A.1 ET17_3280.1.4 ET17_3280.4.2] conns=[Wye Wye Wye] kvs=[13.3367912182804 0.22 0.22] kvas=[5 5 5] %loadloss=2.1 %noloadloss=0.7
New Linecode.LC_MRT_TRF_17_3280A_1 nphases=1 basefreq=60 r1=15000 x1=0 units=km normamps=0
New Linecode.LC_MRT_TRF_17_3280A_2 nphases=2 basefreq=60 r1=15000 x1=0 units=km normamps=0
New Linecode.LC_MRT_TRF_17_3280A_3 nphases=3 basefreq=60 r1=15000 x1=0 units=km normamps=0
New Linecode.LC_MRT_TRF_17_3280A_4 nphases=4 basefreq=60 r1=15000 x1=0 units=km normamps=0
New Line.Resist_MTR_TRF_17_3280A phases=1 bus1=14241.1 bus2= MRT_14241TRF_17_3280A.1 linecode=LC_MRT_TRF_17_3280A_1 length=0.001 units=km
New Reactor.TRF_17_3280A_R phases=1 bus1=ET17_3280.4 R=15 X=0 basefreq=60
New Transformer.TRF_17_3496A phases=3 windings=2 buses=[693841.1.2.3 ET17_3496.1.2.3.4] conns=[Delta Wye] kvs=[23.1 0.38] kvas=[45 45] %loadloss=1.866667 %noloadloss=0.477777
New Reactor.TRF_17_3496A_R phases=1 bus1=ET17_3496.4 R=15 X=0 basefreq=60
New Transformer.TRF_17_3600A phases=1 windings=3 buses=[MRT_583511TRF_17_3600A.3 ET17_3600.1.4 ET17_3600.4.2] conns=[Wye Wye Wye] kvs=[13.3367912182804 0.22 0.22] kvas=[25 25 25] %loadloss=1.56 %noloadloss=0.36
New Linecode.LC_MRT_TRF_17_3600A_1 nphases=1 basefreq=60 r1=15000 x1=0 units=km normamps=0
New Linecode.LC_MRT_TRF_17_3600A_2 nphases=2 basefreq=60 r1=15000 x1=0 units=km normamps=0
New Linecode.LC_MRT_TRF_17_3600A_3 nphases=3 basefreq=60 r1=15000 x1=0 units=km normamps=0
New Linecode.LC_MRT_TRF_17_3600A_4 nphases=4 basefreq=60 r1=15000 x1=0 units=km normamps=0
New Line.Resist_MTR_TRF_17_3600A phases=1 bus1=583511.3 bus2= MRT_583511TRF_17_3600A.3 linecode=LC_MRT_TRF_17_3600A_1 length=0.001 units=km
New Reactor.TRF_17_3600A_R phases=1 bus1=ET17_3600.4 R=15 X=0 basefreq=60
New Transformer.TRF_17_3717A phases=1 windings=3 buses=[MRT_478811TRF_17_3717A.3 ET17_3717.1.4 ET17_3717.4.2] conns=[Wye Wye Wye] kvs=[13.3367912182804 0.22 0.22] kvas=[10 10 10] %loadloss=1.95 %noloadloss=0.5
New Linecode.LC_MRT_TRF_17_3717A_1 nphases=1 basefreq=60 r1=15000 x1=0 units=km normamps=0
New Linecode.LC_MRT_TRF_17_3717A_2 nphases=2 basefreq=60 r1=15000 x1=0 units=km normamps=0
New Linecode.LC_MRT_TRF_17_3717A_3 nphases=3 basefreq=60 r1=15000 x1=0 units=km normamps=0
New Linecode.LC_MRT_TRF_17_3717A_4 nphases=4 basefreq=60 r1=15000 x1=0 units=km normamps=0
New Line.Resist_MTR_TRF_17_3717A phases=1 bus1=478811.3 bus2= MRT_478811TRF_17_3717A.3 linecode=LC_MRT_TRF_17_3717A_1 length=0.001 units=km
New Reactor.TRF_17_3717A_R phases=1 bus1=ET17_3717.4 R=15 X=0 basefreq=60
New Transformer.TRF_17_3779A phases=3 windings=2 buses=[297861.1.2.3 ET17_3779.1.2.3.4] conns=[Delta Wye] kvs=[23.1 0.38] kvas=[45 45] %loadloss=1.866667 %noloadloss=0.477777
New Reactor.TRF_17_3779A_R phases=1 bus1=ET17_3779.4 R=15 X=0 basefreq=60
New Transformer.TRF_17_3783A phases=3 windings=2 buses=[183451.1.2.3 ET17_3783.1.2.3.4] conns=[Delta Wye] kvs=[23.1 0.38] kvas=[45 45] %loadloss=1.866667 %noloadloss=0.477777
New Reactor.TRF_17_3783A_R phases=1 bus1=ET17_3783.4 R=15 X=0 basefreq=60
New Transformer.TRF_17_3880A phases=1 windings=3 buses=[MRT_655241TRF_17_3880A.2 ET17_3880.1.4 ET17_3880.4.2] conns=[Wye Wye Wye] kvs=[13.3367912182804 0.22 0.22] kvas=[10 10 10] %loadloss=1.95 %noloadloss=0.5
New Linecode.LC_MRT_TRF_17_3880A_1 nphases=1 basefreq=60 r1=15000 x1=0 units=km normamps=0
New Linecode.LC_MRT_TRF_17_3880A_2 nphases=2 basefreq=60 r1=15000 x1=0 units=km normamps=0
New Linecode.LC_MRT_TRF_17_3880A_3 nphases=3 basefreq=60 r1=15000 x1=0 units=km normamps=0
New Linecode.LC_MRT_TRF_17_3880A_4 nphases=4 basefreq=60 r1=15000 x1=0 units=km normamps=0
New Line.Resist_MTR_TRF_17_3880A phases=1 bus1=655241.2 bus2= MRT_655241TRF_17_3880A.2 linecode=LC_MRT_TRF_17_3880A_1 length=0.001 units=km
New Reactor.TRF_17_3880A_R phases=1 bus1=ET17_3880.4 R=15 X=0 basefreq=60
New Transformer.TRF_17_39A phases=1 windings=3 buses=[MRT_263671TRF_17_39A.3 ET17_39.1.4 ET17_39.4.2] conns=[Wye Wye Wye] kvs=[13.3367912182804 0.22 0.22] kvas=[10 10 10] %loadloss=1.95 %noloadloss=0.5
New Linecode.LC_MRT_TRF_17_39A_1 nphases=1 basefreq=60 r1=15000 x1=0 units=km normamps=0
New Linecode.LC_MRT_TRF_17_39A_2 nphases=2 basefreq=60 r1=15000 x1=0 units=km normamps=0
New Linecode.LC_MRT_TRF_17_39A_3 nphases=3 basefreq=60 r1=15000 x1=0 units=km normamps=0
New Linecode.LC_MRT_TRF_17_39A_4 nphases=4 basefreq=60 r1=15000 x1=0 units=km normamps=0
New Line.Resist_MTR_TRF_17_39A phases=1 bus1=263671.3 bus2= MRT_263671TRF_17_39A.3 linecode=LC_MRT_TRF_17_39A_1 length=0.001 units=km
New Reactor.TRF_17_39A_R phases=1 bus1=ET17_39.4 R=15 X=0 basefreq=60
New Transformer.TRF_17_3930A phases=1 windings=3 buses=[MRT_648631TRF_17_3930A.3 ET17_3930.1.4 ET17_3930.4.2] conns=[Wye Wye Wye] kvs=[13.3367912182804 0.22 0.22] kvas=[10 10 10] %loadloss=1.95 %noloadloss=0.5
New Linecode.LC_MRT_TRF_17_3930A_1 nphases=1 basefreq=60 r1=15000 x1=0 units=km normamps=0
New Linecode.LC_MRT_TRF_17_3930A_2 nphases=2 basefreq=60 r1=15000 x1=0 units=km normamps=0
New Linecode.LC_MRT_TRF_17_3930A_3 nphases=3 basefreq=60 r1=15000 x1=0 units=km normamps=0
New Linecode.LC_MRT_TRF_17_3930A_4 nphases=4 basefreq=60 r1=15000 x1=0 units=km normamps=0
New Line.Resist_MTR_TRF_17_3930A phases=1 bus1=648631.3 bus2= MRT_648631TRF_17_3930A.3 linecode=LC_MRT_TRF_17_3930A_1 length=0.001 units=km
New Reactor.TRF_17_3930A_R phases=1 bus1=ET17_3930.4 R=15 X=0 basefreq=60
New Transformer.TRF_17_4037A phases=1 windings=2 buses=[MRT_655201TRF_17_4037A.1 ET17_4037.1.4] conns=[Wye Wye] kvs=[13.3367912182804 0.22] kvas=[5 5] %loadloss=2.1 %noloadloss=0.7
New Linecode.LC_MRT_TRF_17_4037A_1 nphases=1 basefreq=60 r1=15000 x1=0 units=km normamps=0
New Linecode.LC_MRT_TRF_17_4037A_2 nphases=2 basefreq=60 r1=15000 x1=0 units=km normamps=0
New Linecode.LC_MRT_TRF_17_4037A_3 nphases=3 basefreq=60 r1=15000 x1=0 units=km normamps=0
New Linecode.LC_MRT_TRF_17_4037A_4 nphases=4 basefreq=60 r1=15000 x1=0 units=km normamps=0
New Line.Resist_MTR_TRF_17_4037A phases=1 bus1=655201.1 bus2= MRT_655201TRF_17_4037A.1 linecode=LC_MRT_TRF_17_4037A_1 length=0.001 units=km
New Reactor.TRF_17_4037A_R phases=1 bus1=ET17_4037.4 R=15 X=0 basefreq=60
New Transformer.TRF_17_4075A phases=3 windings=2 buses=[655471.1.2.3 ET17_4075.1.2.3.4] conns=[Delta Wye] kvs=[23.1 0.38] kvas=[30 30] %loadloss=2.1 %noloadloss=0.533333
New Reactor.TRF_17_4075A_R phases=1 bus1=ET17_4075.4 R=15 X=0 basefreq=60
New Transformer.TRF_17_4128A phases=3 windings=2 buses=[636881.1.2.3 ET17_4128.1.2.3.4] conns=[Delta Wye] kvs=[23.1 0.38] kvas=[45 45] %loadloss=1.866667 %noloadloss=0.477777
New Reactor.TRF_17_4128A_R phases=1 bus1=ET17_4128.4 R=15 X=0 basefreq=60
New Transformer.TRF_17_4175A phases=1 windings=3 buses=[MRT_663591TRF_17_4175A.2 ET17_4175.1.4 ET17_4175.4.2] conns=[Wye Wye Wye] kvs=[13.3367912182804 0.22 0.22] kvas=[25 25 25] %loadloss=1.56 %noloadloss=0.36
New Linecode.LC_MRT_TRF_17_4175A_1 nphases=1 basefreq=60 r1=15000 x1=0 units=km normamps=0
New Linecode.LC_MRT_TRF_17_4175A_2 nphases=2 basefreq=60 r1=15000 x1=0 units=km normamps=0
New Linecode.LC_MRT_TRF_17_4175A_3 nphases=3 basefreq=60 r1=15000 x1=0 units=km normamps=0
New Linecode.LC_MRT_TRF_17_4175A_4 nphases=4 basefreq=60 r1=15000 x1=0 units=km normamps=0
New Line.Resist_MTR_TRF_17_4175A phases=1 bus1=663591.2 bus2= MRT_663591TRF_17_4175A.2 linecode=LC_MRT_TRF_17_4175A_1 length=0.001 units=km
New Reactor.TRF_17_4175A_R phases=1 bus1=ET17_4175.4 R=15 X=0 basefreq=60
New Transformer.TRF_17_4179A phases=1 windings=3 buses=[MRT_655331TRF_17_4179A.2 ET17_4179.1.4 ET17_4179.4.2] conns=[Wye Wye Wye] kvs=[13.3367912182804 0.22 0.22] kvas=[15 15 15] %loadloss=1.766667 %noloadloss=0.433333
New Linecode.LC_MRT_TRF_17_4179A_1 nphases=1 basefreq=60 r1=15000 x1=0 units=km normamps=0
New Linecode.LC_MRT_TRF_17_4179A_2 nphases=2 basefreq=60 r1=15000 x1=0 units=km normamps=0
New Linecode.LC_MRT_TRF_17_4179A_3 nphases=3 basefreq=60 r1=15000 x1=0 units=km normamps=0
New Linecode.LC_MRT_TRF_17_4179A_4 nphases=4 basefreq=60 r1=15000 x1=0 units=km normamps=0
New Line.Resist_MTR_TRF_17_4179A phases=1 bus1=655331.2 bus2= MRT_655331TRF_17_4179A.2 linecode=LC_MRT_TRF_17_4179A_1 length=0.001 units=km
New Reactor.TRF_17_4179A_R phases=1 bus1=ET17_4179.4 R=15 X=0 basefreq=60
New Transformer.TRF_17_4331A phases=3 windings=2 buses=[655181.1.2.3 ET17_4331.1.2.3.4] conns=[Delta Wye] kvs=[23.1 0.38] kvas=[30 30] %loadloss=2.1 %noloadloss=0.533333
New Reactor.TRF_17_4331A_R phases=1 bus1=ET17_4331.4 R=15 X=0 basefreq=60
New Transformer.TRF_17_4479A phases=1 windings=3 buses=[MRT_244261TRF_17_4479A.1 ET17_4479.1.4 ET17_4479.4.2] conns=[Wye Wye Wye] kvs=[13.3367912182804 0.22 0.22] kvas=[15 15 15] %loadloss=1.766667 %noloadloss=0.433333
New Linecode.LC_MRT_TRF_17_4479A_1 nphases=1 basefreq=60 r1=15000 x1=0 units=km normamps=0
New Linecode.LC_MRT_TRF_17_4479A_2 nphases=2 basefreq=60 r1=15000 x1=0 units=km normamps=0
New Linecode.LC_MRT_TRF_17_4479A_3 nphases=3 basefreq=60 r1=15000 x1=0 units=km normamps=0
New Linecode.LC_MRT_TRF_17_4479A_4 nphases=4 basefreq=60 r1=15000 x1=0 units=km normamps=0
New Line.Resist_MTR_TRF_17_4479A phases=1 bus1=244261.1 bus2= MRT_244261TRF_17_4479A.1 linecode=LC_MRT_TRF_17_4479A_1 length=0.001 units=km
New Reactor.TRF_17_4479A_R phases=1 bus1=ET17_4479.4 R=15 X=0 basefreq=60
New Transformer.TRF_17_4833A phases=1 windings=3 buses=[MRT_183351TRF_17_4833A.3 ET17_4833.1.4 ET17_4833.4.2] conns=[Wye Wye Wye] kvs=[13.3367912182804 0.22 0.22] kvas=[10 10 10] %loadloss=1.95 %noloadloss=0.5
New Linecode.LC_MRT_TRF_17_4833A_1 nphases=1 basefreq=60 r1=15000 x1=0 units=km normamps=0
New Linecode.LC_MRT_TRF_17_4833A_2 nphases=2 basefreq=60 r1=15000 x1=0 units=km normamps=0
New Linecode.LC_MRT_TRF_17_4833A_3 nphases=3 basefreq=60 r1=15000 x1=0 units=km normamps=0
New Linecode.LC_MRT_TRF_17_4833A_4 nphases=4 basefreq=60 r1=15000 x1=0 units=km normamps=0
New Line.Resist_MTR_TRF_17_4833A phases=1 bus1=183351.3 bus2= MRT_183351TRF_17_4833A.3 linecode=LC_MRT_TRF_17_4833A_1 length=0.001 units=km
New Reactor.TRF_17_4833A_R phases=1 bus1=ET17_4833.4 R=15 X=0 basefreq=60
New Transformer.TRF_17_5149A phases=1 windings=3 buses=[MRT_663711TRF_17_5149A.3 ET17_5149.1.4 ET17_5149.4.2] conns=[Wye Wye Wye] kvs=[13.3367912182804 0.22 0.22] kvas=[15 15 15] %loadloss=1.766667 %noloadloss=0.433333
New Linecode.LC_MRT_TRF_17_5149A_1 nphases=1 basefreq=60 r1=15000 x1=0 units=km normamps=0
New Linecode.LC_MRT_TRF_17_5149A_2 nphases=2 basefreq=60 r1=15000 x1=0 units=km normamps=0
New Linecode.LC_MRT_TRF_17_5149A_3 nphases=3 basefreq=60 r1=15000 x1=0 units=km normamps=0
New Linecode.LC_MRT_TRF_17_5149A_4 nphases=4 basefreq=60 r1=15000 x1=0 units=km normamps=0
New Line.Resist_MTR_TRF_17_5149A phases=1 bus1=663711.3 bus2= MRT_663711TRF_17_5149A.3 linecode=LC_MRT_TRF_17_5149A_1 length=0.001 units=km
New Reactor.TRF_17_5149A_R phases=1 bus1=ET17_5149.4 R=15 X=0 basefreq=60
New Transformer.TRF_17_5289A phases=1 windings=3 buses=[MRT_684411TRF_17_5289A.1 ET17_5289.1.4 ET17_5289.4.2] conns=[Wye Wye Wye] kvs=[13.3367912182804 0.22 0.22] kvas=[15 15 15] %loadloss=1.766667 %noloadloss=0.433333
New Linecode.LC_MRT_TRF_17_5289A_1 nphases=1 basefreq=60 r1=15000 x1=0 units=km normamps=0
New Linecode.LC_MRT_TRF_17_5289A_2 nphases=2 basefreq=60 r1=15000 x1=0 units=km normamps=0
New Linecode.LC_MRT_TRF_17_5289A_3 nphases=3 basefreq=60 r1=15000 x1=0 units=km normamps=0
New Linecode.LC_MRT_TRF_17_5289A_4 nphases=4 basefreq=60 r1=15000 x1=0 units=km normamps=0
New Line.Resist_MTR_TRF_17_5289A phases=1 bus1=684411.1 bus2= MRT_684411TRF_17_5289A.1 linecode=LC_MRT_TRF_17_5289A_1 length=0.001 units=km
New Reactor.TRF_17_5289A_R phases=1 bus1=ET17_5289.4 R=15 X=0 basefreq=60
New Transformer.TRF_17_53A phases=1 windings=3 buses=[300831.3.1 ET17_53.1.4 ET17_53.4.2] conns=[Delta Wye Wye] kvs=[23.1 0.22 0.22] kvas=[10 10 10] %loadloss=1.15 %noloadloss=0.4
New Reactor.TRF_17_53A_R phases=1 bus1=ET17_53.4 R=15 X=0 basefreq=60
New Transformer.TRF_17_5301A phases=1 windings=3 buses=[MRT_680901TRF_17_5301A.1 ET17_5301.1.4 ET17_5301.4.2] conns=[Wye Wye Wye] kvs=[13.3367912182804 0.22 0.22] kvas=[15 15 15] %loadloss=1.766667 %noloadloss=0.433333
New Linecode.LC_MRT_TRF_17_5301A_1 nphases=1 basefreq=60 r1=15000 x1=0 units=km normamps=0
New Linecode.LC_MRT_TRF_17_5301A_2 nphases=2 basefreq=60 r1=15000 x1=0 units=km normamps=0
New Linecode.LC_MRT_TRF_17_5301A_3 nphases=3 basefreq=60 r1=15000 x1=0 units=km normamps=0
New Linecode.LC_MRT_TRF_17_5301A_4 nphases=4 basefreq=60 r1=15000 x1=0 units=km normamps=0
New Line.Resist_MTR_TRF_17_5301A phases=1 bus1=680901.1 bus2= MRT_680901TRF_17_5301A.1 linecode=LC_MRT_TRF_17_5301A_1 length=0.001 units=km
New Reactor.TRF_17_5301A_R phases=1 bus1=ET17_5301.4 R=15 X=0 basefreq=60
New Transformer.TRF_17_5334A phases=3 windings=2 buses=[745981.1.2.3 ET17_5334.1.2.3.4] conns=[Delta Wye] kvs=[23.1 0.38] kvas=[45 45] %loadloss=1.866667 %noloadloss=0.477777
New Reactor.TRF_17_5334A_R phases=1 bus1=ET17_5334.4 R=15 X=0 basefreq=60
New Transformer.TRF_17_54A phases=1 windings=3 buses=[300751.3.1 ET17_54.1.4 ET17_54.4.2] conns=[Delta Wye Wye] kvs=[23.1 0.22 0.22] kvas=[15 15 15] %loadloss=1.933333 %noloadloss=0.5
New Reactor.TRF_17_54A_R phases=1 bus1=ET17_54.4 R=15 X=0 basefreq=60
New Transformer.TRF_17_5460A phases=3 windings=2 buses=[686291.1.2.3 ET17_5460.1.2.3.4] conns=[Delta Wye] kvs=[23.1 0.38] kvas=[30 30] %loadloss=2.1 %noloadloss=0.533333
New Reactor.TRF_17_5460A_R phases=1 bus1=ET17_5460.4 R=15 X=0 basefreq=60
New Transformer.TRF_17_5587A phases=3 windings=2 buses=[750271.1.2.3 ET17_5587.1.2.3.4] conns=[Delta Wye] kvs=[23.1 0.38] kvas=[30 30] %loadloss=2.1 %noloadloss=0.533333
New Reactor.TRF_17_5587A_R phases=1 bus1=ET17_5587.4 R=15 X=0 basefreq=60
New Transformer.TRF_17_5601A phases=3 windings=2 buses=[750291.1.2.3 ET17_5601.1.2.3.4] conns=[Delta Wye] kvs=[23.1 0.38] kvas=[45 45] %loadloss=1.866667 %noloadloss=0.477777
New Reactor.TRF_17_5601A_R phases=1 bus1=ET17_5601.4 R=15 X=0 basefreq=60
New Transformer.TRF_17_5645A phases=1 windings=3 buses=[MRT_755671TRF_17_5645A.3 ET17_5645.1.4 ET17_5645.4.2] conns=[Wye Wye Wye] kvs=[13.3367912182804 0.22 0.22] kvas=[10 10 10] %loadloss=1.95 %noloadloss=0.5
New Linecode.LC_MRT_TRF_17_5645A_1 nphases=1 basefreq=60 r1=15000 x1=0 units=km normamps=0
New Linecode.LC_MRT_TRF_17_5645A_2 nphases=2 basefreq=60 r1=15000 x1=0 units=km normamps=0
New Linecode.LC_MRT_TRF_17_5645A_3 nphases=3 basefreq=60 r1=15000 x1=0 units=km normamps=0
New Linecode.LC_MRT_TRF_17_5645A_4 nphases=4 basefreq=60 r1=15000 x1=0 units=km normamps=0
New Line.Resist_MTR_TRF_17_5645A phases=1 bus1=755671.3 bus2= MRT_755671TRF_17_5645A.3 linecode=LC_MRT_TRF_17_5645A_1 length=0.001 units=km
New Reactor.TRF_17_5645A_R phases=1 bus1=ET17_5645.4 R=15 X=0 basefreq=60
New Transformer.TRF_17_5777A phases=1 windings=3 buses=[MRT_764362TRF_17_5777A.3 ET17_5777.1.4 ET17_5777.4.2] conns=[Wye Wye Wye] kvs=[13.3367912182804 0.22 0.22] kvas=[10 10 10] %loadloss=1.95 %noloadloss=0.5
New Linecode.LC_MRT_TRF_17_5777A_1 nphases=1 basefreq=60 r1=15000 x1=0 units=km normamps=0
New Linecode.LC_MRT_TRF_17_5777A_2 nphases=2 basefreq=60 r1=15000 x1=0 units=km normamps=0
New Linecode.LC_MRT_TRF_17_5777A_3 nphases=3 basefreq=60 r1=15000 x1=0 units=km normamps=0
New Linecode.LC_MRT_TRF_17_5777A_4 nphases=4 basefreq=60 r1=15000 x1=0 units=km normamps=0
New Line.Resist_MTR_TRF_17_5777A phases=1 bus1=764362.3 bus2= MRT_764362TRF_17_5777A.3 linecode=LC_MRT_TRF_17_5777A_1 length=0.001 units=km
New Reactor.TRF_17_5777A_R phases=1 bus1=ET17_5777.4 R=15 X=0 basefreq=60
New Transformer.TRF_17_5865A phases=3 windings=2 buses=[769021.1.2.3 ET17_5865.1.2.3.4] conns=[Delta Wye] kvs=[23.1 0.38] kvas=[45 45] %loadloss=1.866667 %noloadloss=0.477777
New Reactor.TRF_17_5865A_R phases=1 bus1=ET17_5865.4 R=15 X=0 basefreq=60
New Transformer.TRF_17_5938A phases=3 windings=2 buses=[330211.1.2.3 ET17_5938.1.2.3.4] conns=[Delta Wye] kvs=[23.1 0.38] kvas=[45 45] %loadloss=1.866667 %noloadloss=0.477777
New Reactor.TRF_17_5938A_R phases=1 bus1=ET17_5938.4 R=15 X=0 basefreq=60
New Transformer.TRF_17_5985A phases=3 windings=2 buses=[779261.1.2.3 ET17_5985.1.2.3.4] conns=[Delta Wye] kvs=[23.1 0.38] kvas=[75 75] %loadloss=3.84 %noloadloss=0.966666
New Reactor.TRF_17_5985A_R phases=1 bus1=ET17_5985.4 R=15 X=0 basefreq=60
New Transformer.TRF_17_5986A phases=3 windings=2 buses=[788221.1.2.3 ET17_5986.1.2.3.4] conns=[Delta Wye] kvs=[23.1 0.38] kvas=[75 75] %loadloss=3.84 %noloadloss=0.966666
New Reactor.TRF_17_5986A_R phases=1 bus1=ET17_5986.4 R=15 X=0 basefreq=60
New Transformer.TRF_17_5987A phases=3 windings=2 buses=[788201.1.2.3 ET17_5987.1.2.3.4] conns=[Delta Wye] kvs=[23.1 0.38] kvas=[15 15] %loadloss=2.5 %noloadloss=0.633333
New Reactor.TRF_17_5987A_R phases=1 bus1=ET17_5987.4 R=15 X=0 basefreq=60
New Transformer.TRF_17_6046A phases=1 windings=3 buses=[MRT_789181TRF_17_6046A.3 ET17_6046.1.4 ET17_6046.4.2] conns=[Wye Wye Wye] kvs=[13.3367912182804 0.22 0.22] kvas=[15 15 15] %loadloss=1.766667 %noloadloss=0.433333
New Linecode.LC_MRT_TRF_17_6046A_1 nphases=1 basefreq=60 r1=15000 x1=0 units=km normamps=0
New Linecode.LC_MRT_TRF_17_6046A_2 nphases=2 basefreq=60 r1=15000 x1=0 units=km normamps=0
New Linecode.LC_MRT_TRF_17_6046A_3 nphases=3 basefreq=60 r1=15000 x1=0 units=km normamps=0
New Linecode.LC_MRT_TRF_17_6046A_4 nphases=4 basefreq=60 r1=15000 x1=0 units=km normamps=0
New Line.Resist_MTR_TRF_17_6046A phases=1 bus1=789181.3 bus2= MRT_789181TRF_17_6046A.3 linecode=LC_MRT_TRF_17_6046A_1 length=0.001 units=km
New Reactor.TRF_17_6046A_R phases=1 bus1=ET17_6046.4 R=15 X=0 basefreq=60
New Transformer.TRF_17_6112A phases=1 windings=3 buses=[MRT_793461TRF_17_6112A.2 ET17_6112.1.4 ET17_6112.4.2] conns=[Wye Wye Wye] kvs=[13.3367912182804 0.22 0.22] kvas=[10 10 10] %loadloss=1.95 %noloadloss=0.5
New Linecode.LC_MRT_TRF_17_6112A_1 nphases=1 basefreq=60 r1=15000 x1=0 units=km normamps=0
New Linecode.LC_MRT_TRF_17_6112A_2 nphases=2 basefreq=60 r1=15000 x1=0 units=km normamps=0
New Linecode.LC_MRT_TRF_17_6112A_3 nphases=3 basefreq=60 r1=15000 x1=0 units=km normamps=0
New Linecode.LC_MRT_TRF_17_6112A_4 nphases=4 basefreq=60 r1=15000 x1=0 units=km normamps=0
New Line.Resist_MTR_TRF_17_6112A phases=1 bus1=793461.2 bus2= MRT_793461TRF_17_6112A.2 linecode=LC_MRT_TRF_17_6112A_1 length=0.001 units=km
New Reactor.TRF_17_6112A_R phases=1 bus1=ET17_6112.4 R=15 X=0 basefreq=60
New Transformer.TRF_17_6343A phases=3 windings=2 buses=[376391.1.2.3 ET17_6343.1.2.3.4] conns=[Delta Wye] kvs=[23.1 0.38] kvas=[112.5 112.5] %loadloss=1.475556 %noloadloss=0.377777
New Reactor.TRF_17_6343A_R phases=1 bus1=ET17_6343.4 R=15 X=0 basefreq=60
New Transformer.TRF_17_6445A phases=3 windings=2 buses=[816301.1.2.3 ET17_6445.1.2.3.4] conns=[Delta Wye] kvs=[23.1 0.38] kvas=[30 30] %loadloss=2.1 %noloadloss=0.533333
New Reactor.TRF_17_6445A_R phases=1 bus1=ET17_6445.4 R=15 X=0 basefreq=60
New Transformer.TRF_17_798A phases=1 windings=3 buses=[MRT_283761TRF_17_798A.2 ET17_798.1.4 ET17_798.4.2] conns=[Wye Wye Wye] kvs=[13.3367912182804 0.22 0.22] kvas=[10 10 10] %loadloss=1.95 %noloadloss=0.5
New Linecode.LC_MRT_TRF_17_798A_1 nphases=1 basefreq=60 r1=15000 x1=0 units=km normamps=0
New Linecode.LC_MRT_TRF_17_798A_2 nphases=2 basefreq=60 r1=15000 x1=0 units=km normamps=0
New Linecode.LC_MRT_TRF_17_798A_3 nphases=3 basefreq=60 r1=15000 x1=0 units=km normamps=0
New Linecode.LC_MRT_TRF_17_798A_4 nphases=4 basefreq=60 r1=15000 x1=0 units=km normamps=0
New Line.Resist_MTR_TRF_17_798A phases=1 bus1=283761.2 bus2= MRT_283761TRF_17_798A.2 linecode=LC_MRT_TRF_17_798A_1 length=0.001 units=km
New Reactor.TRF_17_798A_R phases=1 bus1=ET17_798.4 R=15 X=0 basefreq=60
New Transformer.TRF_18_1002A phases=1 windings=3 buses=[MRT_224921TRF_18_1002A.1 ET18_1002.1.4 ET18_1002.4.2] conns=[Wye Wye Wye] kvs=[13.3367912182804 0.22 0.22] kvas=[15 15 15] %loadloss=1.766667 %noloadloss=0.433333
New Linecode.LC_MRT_TRF_18_1002A_1 nphases=1 basefreq=60 r1=15000 x1=0 units=km normamps=0
New Linecode.LC_MRT_TRF_18_1002A_2 nphases=2 basefreq=60 r1=15000 x1=0 units=km normamps=0
New Linecode.LC_MRT_TRF_18_1002A_3 nphases=3 basefreq=60 r1=15000 x1=0 units=km normamps=0
New Linecode.LC_MRT_TRF_18_1002A_4 nphases=4 basefreq=60 r1=15000 x1=0 units=km normamps=0
New Line.Resist_MTR_TRF_18_1002A phases=1 bus1=224921.1 bus2= MRT_224921TRF_18_1002A.1 linecode=LC_MRT_TRF_18_1002A_1 length=0.001 units=km
New Reactor.TRF_18_1002A_R phases=1 bus1=ET18_1002.4 R=15 X=0 basefreq=60
New Transformer.TRF_18_1003A phases=1 windings=3 buses=[MRT_225051TRF_18_1003A.2 ET18_1003.1.4 ET18_1003.4.2] conns=[Wye Wye Wye] kvs=[13.3367912182804 0.22 0.22] kvas=[10 10 10] %loadloss=1.95 %noloadloss=0.5
New Linecode.LC_MRT_TRF_18_1003A_1 nphases=1 basefreq=60 r1=15000 x1=0 units=km normamps=0
New Linecode.LC_MRT_TRF_18_1003A_2 nphases=2 basefreq=60 r1=15000 x1=0 units=km normamps=0
New Linecode.LC_MRT_TRF_18_1003A_3 nphases=3 basefreq=60 r1=15000 x1=0 units=km normamps=0
New Linecode.LC_MRT_TRF_18_1003A_4 nphases=4 basefreq=60 r1=15000 x1=0 units=km normamps=0
New Line.Resist_MTR_TRF_18_1003A phases=1 bus1=225051.2 bus2= MRT_225051TRF_18_1003A.2 linecode=LC_MRT_TRF_18_1003A_1 length=0.001 units=km
New Reactor.TRF_18_1003A_R phases=1 bus1=ET18_1003.4 R=15 X=0 basefreq=60
New Transformer.TRF_18_1004A phases=1 windings=3 buses=[MRT_152401TRF_18_1004A.2 ET18_1004.1.4 ET18_1004.4.2] conns=[Wye Wye Wye] kvs=[13.3367912182804 0.22 0.22] kvas=[15 15 15] %loadloss=1.766667 %noloadloss=0.433333
New Linecode.LC_MRT_TRF_18_1004A_1 nphases=1 basefreq=60 r1=15000 x1=0 units=km normamps=0
New Linecode.LC_MRT_TRF_18_1004A_2 nphases=2 basefreq=60 r1=15000 x1=0 units=km normamps=0
New Linecode.LC_MRT_TRF_18_1004A_3 nphases=3 basefreq=60 r1=15000 x1=0 units=km normamps=0
New Linecode.LC_MRT_TRF_18_1004A_4 nphases=4 basefreq=60 r1=15000 x1=0 units=km normamps=0
New Line.Resist_MTR_TRF_18_1004A phases=1 bus1=152401.2 bus2= MRT_152401TRF_18_1004A.2 linecode=LC_MRT_TRF_18_1004A_1 length=0.001 units=km
New Reactor.TRF_18_1004A_R phases=1 bus1=ET18_1004.4 R=15 X=0 basefreq=60
New Transformer.TRF_18_1005A phases=1 windings=3 buses=[MRT_245341TRF_18_1005A.2 ET18_1005.1.4 ET18_1005.4.2] conns=[Wye Wye Wye] kvs=[13.3367912182804 0.22 0.22] kvas=[10 10 10] %loadloss=1.95 %noloadloss=0.5
New Linecode.LC_MRT_TRF_18_1005A_1 nphases=1 basefreq=60 r1=15000 x1=0 units=km normamps=0
New Linecode.LC_MRT_TRF_18_1005A_2 nphases=2 basefreq=60 r1=15000 x1=0 units=km normamps=0
New Linecode.LC_MRT_TRF_18_1005A_3 nphases=3 basefreq=60 r1=15000 x1=0 units=km normamps=0
New Linecode.LC_MRT_TRF_18_1005A_4 nphases=4 basefreq=60 r1=15000 x1=0 units=km normamps=0
New Line.Resist_MTR_TRF_18_1005A phases=1 bus1=245341.2 bus2= MRT_245341TRF_18_1005A.2 linecode=LC_MRT_TRF_18_1005A_1 length=0.001 units=km
New Reactor.TRF_18_1005A_R phases=1 bus1=ET18_1005.4 R=15 X=0 basefreq=60
New Transformer.TRF_18_1007A phases=1 windings=3 buses=[MRT_241531TRF_18_1007A.2 ET18_1007.1.4 ET18_1007.4.2] conns=[Wye Wye Wye] kvs=[13.3367912182804 0.22 0.22] kvas=[15 15 15] %loadloss=1.766667 %noloadloss=0.433333
New Linecode.LC_MRT_TRF_18_1007A_1 nphases=1 basefreq=60 r1=15000 x1=0 units=km normamps=0
New Linecode.LC_MRT_TRF_18_1007A_2 nphases=2 basefreq=60 r1=15000 x1=0 units=km normamps=0
New Linecode.LC_MRT_TRF_18_1007A_3 nphases=3 basefreq=60 r1=15000 x1=0 units=km normamps=0
New Linecode.LC_MRT_TRF_18_1007A_4 nphases=4 basefreq=60 r1=15000 x1=0 units=km normamps=0
New Line.Resist_MTR_TRF_18_1007A phases=1 bus1=241531.2 bus2= MRT_241531TRF_18_1007A.2 linecode=LC_MRT_TRF_18_1007A_1 length=0.001 units=km
New Reactor.TRF_18_1007A_R phases=1 bus1=ET18_1007.4 R=15 X=0 basefreq=60
New Transformer.TRF_18_1008A phases=1 windings=3 buses=[MRT_244371TRF_18_1008A.2 ET18_1008.1.4 ET18_1008.4.2] conns=[Wye Wye Wye] kvs=[13.3367912182804 0.22 0.22] kvas=[25 25 25] %loadloss=1.56 %noloadloss=0.36
New Linecode.LC_MRT_TRF_18_1008A_1 nphases=1 basefreq=60 r1=15000 x1=0 units=km normamps=0
New Linecode.LC_MRT_TRF_18_1008A_2 nphases=2 basefreq=60 r1=15000 x1=0 units=km normamps=0
New Linecode.LC_MRT_TRF_18_1008A_3 nphases=3 basefreq=60 r1=15000 x1=0 units=km normamps=0
New Linecode.LC_MRT_TRF_18_1008A_4 nphases=4 basefreq=60 r1=15000 x1=0 units=km normamps=0
New Line.Resist_MTR_TRF_18_1008A phases=1 bus1=244371.2 bus2= MRT_244371TRF_18_1008A.2 linecode=LC_MRT_TRF_18_1008A_1 length=0.001 units=km
New Reactor.TRF_18_1008A_R phases=1 bus1=ET18_1008.4 R=15 X=0 basefreq=60
New Transformer.TRF_18_1009A phases=1 windings=3 buses=[MRT_244461TRF_18_1009A.2 ET18_1009.1.4 ET18_1009.4.2] conns=[Wye Wye Wye] kvs=[13.3367912182804 0.22 0.22] kvas=[25 25 25] %loadloss=1.56 %noloadloss=0.36
New Linecode.LC_MRT_TRF_18_1009A_1 nphases=1 basefreq=60 r1=15000 x1=0 units=km normamps=0
New Linecode.LC_MRT_TRF_18_1009A_2 nphases=2 basefreq=60 r1=15000 x1=0 units=km normamps=0
New Linecode.LC_MRT_TRF_18_1009A_3 nphases=3 basefreq=60 r1=15000 x1=0 units=km normamps=0
New Linecode.LC_MRT_TRF_18_1009A_4 nphases=4 basefreq=60 r1=15000 x1=0 units=km normamps=0
New Line.Resist_MTR_TRF_18_1009A phases=1 bus1=244461.2 bus2= MRT_244461TRF_18_1009A.2 linecode=LC_MRT_TRF_18_1009A_1 length=0.001 units=km
New Reactor.TRF_18_1009A_R phases=1 bus1=ET18_1009.4 R=15 X=0 basefreq=60
New Transformer.TRF_18_1011A phases=1 windings=3 buses=[MRT_239691TRF_18_1011A.2 ET18_1011.1.4 ET18_1011.4.2] conns=[Wye Wye Wye] kvs=[13.3367912182804 0.22 0.22] kvas=[25 25 25] %loadloss=1.56 %noloadloss=0.36
New Linecode.LC_MRT_TRF_18_1011A_1 nphases=1 basefreq=60 r1=15000 x1=0 units=km normamps=0
New Linecode.LC_MRT_TRF_18_1011A_2 nphases=2 basefreq=60 r1=15000 x1=0 units=km normamps=0
New Linecode.LC_MRT_TRF_18_1011A_3 nphases=3 basefreq=60 r1=15000 x1=0 units=km normamps=0
New Linecode.LC_MRT_TRF_18_1011A_4 nphases=4 basefreq=60 r1=15000 x1=0 units=km normamps=0
New Line.Resist_MTR_TRF_18_1011A phases=1 bus1=239691.2 bus2= MRT_239691TRF_18_1011A.2 linecode=LC_MRT_TRF_18_1011A_1 length=0.001 units=km
New Reactor.TRF_18_1011A_R phases=1 bus1=ET18_1011.4 R=15 X=0 basefreq=60
New Transformer.TRF_18_1050A phases=1 windings=3 buses=[MRT_185801TRF_18_1050A.2 ET18_1050.1.4 ET18_1050.4.2] conns=[Wye Wye Wye] kvs=[13.3367912182804 0.22 0.22] kvas=[25 25 25] %loadloss=1.56 %noloadloss=0.36
New Linecode.LC_MRT_TRF_18_1050A_1 nphases=1 basefreq=60 r1=15000 x1=0 units=km normamps=0
New Linecode.LC_MRT_TRF_18_1050A_2 nphases=2 basefreq=60 r1=15000 x1=0 units=km normamps=0
New Linecode.LC_MRT_TRF_18_1050A_3 nphases=3 basefreq=60 r1=15000 x1=0 units=km normamps=0
New Linecode.LC_MRT_TRF_18_1050A_4 nphases=4 basefreq=60 r1=15000 x1=0 units=km normamps=0
New Line.Resist_MTR_TRF_18_1050A phases=1 bus1=185801.2 bus2= MRT_185801TRF_18_1050A.2 linecode=LC_MRT_TRF_18_1050A_1 length=0.001 units=km
New Reactor.TRF_18_1050A_R phases=1 bus1=ET18_1050.4 R=15 X=0 basefreq=60
New Transformer.TRF_18_1091A phases=1 windings=3 buses=[MRT_611041TRF_18_1091A.2 ET18_1091.1.4 ET18_1091.4.2] conns=[Wye Wye Wye] kvs=[13.3367912182804 0.22 0.22] kvas=[10 10 10] %loadloss=1.95 %noloadloss=0.5
New Linecode.LC_MRT_TRF_18_1091A_1 nphases=1 basefreq=60 r1=15000 x1=0 units=km normamps=0
New Linecode.LC_MRT_TRF_18_1091A_2 nphases=2 basefreq=60 r1=15000 x1=0 units=km normamps=0
New Linecode.LC_MRT_TRF_18_1091A_3 nphases=3 basefreq=60 r1=15000 x1=0 units=km normamps=0
New Linecode.LC_MRT_TRF_18_1091A_4 nphases=4 basefreq=60 r1=15000 x1=0 units=km normamps=0
New Line.Resist_MTR_TRF_18_1091A phases=1 bus1=611041.2 bus2= MRT_611041TRF_18_1091A.2 linecode=LC_MRT_TRF_18_1091A_1 length=0.001 units=km
New Reactor.TRF_18_1091A_R phases=1 bus1=ET18_1091.4 R=15 X=0 basefreq=60
New Transformer.TRF_18_1104A phases=1 windings=3 buses=[MRT_286051TRF_18_1104A.3 ET18_1104.1.4 ET18_1104.4.2] conns=[Wye Wye Wye] kvs=[13.3367912182804 0.22 0.22] kvas=[15 15 15] %loadloss=1.766667 %noloadloss=0.433333
New Linecode.LC_MRT_TRF_18_1104A_1 nphases=1 basefreq=60 r1=15000 x1=0 units=km normamps=0
New Linecode.LC_MRT_TRF_18_1104A_2 nphases=2 basefreq=60 r1=15000 x1=0 units=km normamps=0
New Linecode.LC_MRT_TRF_18_1104A_3 nphases=3 basefreq=60 r1=15000 x1=0 units=km normamps=0
New Linecode.LC_MRT_TRF_18_1104A_4 nphases=4 basefreq=60 r1=15000 x1=0 units=km normamps=0
New Line.Resist_MTR_TRF_18_1104A phases=1 bus1=286051.3 bus2= MRT_286051TRF_18_1104A.3 linecode=LC_MRT_TRF_18_1104A_1 length=0.001 units=km
New Reactor.TRF_18_1104A_R phases=1 bus1=ET18_1104.4 R=15 X=0 basefreq=60
New Transformer.TRF_18_1105A phases=1 windings=3 buses=[MRT_286271TRF_18_1105A.3 ET18_1105.1.4 ET18_1105.4.2] conns=[Wye Wye Wye] kvs=[13.3367912182804 0.22 0.22] kvas=[15 15 15] %loadloss=1.766667 %noloadloss=0.433333
New Linecode.LC_MRT_TRF_18_1105A_1 nphases=1 basefreq=60 r1=15000 x1=0 units=km normamps=0
New Linecode.LC_MRT_TRF_18_1105A_2 nphases=2 basefreq=60 r1=15000 x1=0 units=km normamps=0
New Linecode.LC_MRT_TRF_18_1105A_3 nphases=3 basefreq=60 r1=15000 x1=0 units=km normamps=0
New Linecode.LC_MRT_TRF_18_1105A_4 nphases=4 basefreq=60 r1=15000 x1=0 units=km normamps=0
New Line.Resist_MTR_TRF_18_1105A phases=1 bus1=286271.3 bus2= MRT_286271TRF_18_1105A.3 linecode=LC_MRT_TRF_18_1105A_1 length=0.001 units=km
New Reactor.TRF_18_1105A_R phases=1 bus1=ET18_1105.4 R=15 X=0 basefreq=60
New Transformer.TRF_18_1109A phases=1 windings=3 buses=[MRT_440451TRF_18_1109A.3 ET18_1109.1.4 ET18_1109.4.2] conns=[Wye Wye Wye] kvs=[13.3367912182804 0.22 0.22] kvas=[25 25 25] %loadloss=1.56 %noloadloss=0.36
New Linecode.LC_MRT_TRF_18_1109A_1 nphases=1 basefreq=60 r1=15000 x1=0 units=km normamps=0
New Linecode.LC_MRT_TRF_18_1109A_2 nphases=2 basefreq=60 r1=15000 x1=0 units=km normamps=0
New Linecode.LC_MRT_TRF_18_1109A_3 nphases=3 basefreq=60 r1=15000 x1=0 units=km normamps=0
New Linecode.LC_MRT_TRF_18_1109A_4 nphases=4 basefreq=60 r1=15000 x1=0 units=km normamps=0
New Line.Resist_MTR_TRF_18_1109A phases=1 bus1=440451.3 bus2= MRT_440451TRF_18_1109A.3 linecode=LC_MRT_TRF_18_1109A_1 length=0.001 units=km
New Reactor.TRF_18_1109A_R phases=1 bus1=ET18_1109.4 R=15 X=0 basefreq=60
New Transformer.TRF_18_1156A phases=1 windings=3 buses=[MRT_130451TRF_18_1156A.2 ET18_1156.1.4 ET18_1156.4.2] conns=[Wye Wye Wye] kvs=[13.3367912182804 0.22 0.22] kvas=[10 10 10] %loadloss=1.95 %noloadloss=0.5
New Linecode.LC_MRT_TRF_18_1156A_1 nphases=1 basefreq=60 r1=15000 x1=0 units=km normamps=0
New Linecode.LC_MRT_TRF_18_1156A_2 nphases=2 basefreq=60 r1=15000 x1=0 units=km normamps=0
New Linecode.LC_MRT_TRF_18_1156A_3 nphases=3 basefreq=60 r1=15000 x1=0 units=km normamps=0
New Linecode.LC_MRT_TRF_18_1156A_4 nphases=4 basefreq=60 r1=15000 x1=0 units=km normamps=0
New Line.Resist_MTR_TRF_18_1156A phases=1 bus1=130451.2 bus2= MRT_130451TRF_18_1156A.2 linecode=LC_MRT_TRF_18_1156A_1 length=0.001 units=km
New Reactor.TRF_18_1156A_R phases=1 bus1=ET18_1156.4 R=15 X=0 basefreq=60
New Transformer.TRF_18_1162A phases=3 windings=2 buses=[195311.1.2.3 ET18_1162.1.2.3.4] conns=[Delta Wye] kvs=[23.1 0.38] kvas=[15 15] %loadloss=2.5 %noloadloss=0.633333
New Reactor.TRF_18_1162A_R phases=1 bus1=ET18_1162.4 R=15 X=0 basefreq=60
New Transformer.TRF_18_1164A phases=3 windings=2 buses=[228771.1.2.3 ET18_1164.1.2.3.4] conns=[Delta Wye] kvs=[23.1 0.38] kvas=[75 75] %loadloss=3.84 %noloadloss=0.966666
New Reactor.TRF_18_1164A_R phases=1 bus1=ET18_1164.4 R=15 X=0 basefreq=60
New Transformer.TRF_18_1166A phases=1 windings=3 buses=[MRT_175701TRF_18_1166A.2 ET18_1166.1.4 ET18_1166.4.2] conns=[Wye Wye Wye] kvs=[13.3367912182804 0.22 0.22] kvas=[15 15 15] %loadloss=1.766667 %noloadloss=0.433333
New Linecode.LC_MRT_TRF_18_1166A_1 nphases=1 basefreq=60 r1=15000 x1=0 units=km normamps=0
New Linecode.LC_MRT_TRF_18_1166A_2 nphases=2 basefreq=60 r1=15000 x1=0 units=km normamps=0
New Linecode.LC_MRT_TRF_18_1166A_3 nphases=3 basefreq=60 r1=15000 x1=0 units=km normamps=0
New Linecode.LC_MRT_TRF_18_1166A_4 nphases=4 basefreq=60 r1=15000 x1=0 units=km normamps=0
New Line.Resist_MTR_TRF_18_1166A phases=1 bus1=175701.2 bus2= MRT_175701TRF_18_1166A.2 linecode=LC_MRT_TRF_18_1166A_1 length=0.001 units=km
New Reactor.TRF_18_1166A_R phases=1 bus1=ET18_1166.4 R=15 X=0 basefreq=60
New Transformer.TRF_18_1167A phases=1 windings=3 buses=[MRT_157281TRF_18_1167A.2 ET18_1167.1.4 ET18_1167.4.2] conns=[Wye Wye Wye] kvs=[13.3367912182804 0.22 0.22] kvas=[25 25 25] %loadloss=1.56 %noloadloss=0.36
New Linecode.LC_MRT_TRF_18_1167A_1 nphases=1 basefreq=60 r1=15000 x1=0 units=km normamps=0
New Linecode.LC_MRT_TRF_18_1167A_2 nphases=2 basefreq=60 r1=15000 x1=0 units=km normamps=0
New Linecode.LC_MRT_TRF_18_1167A_3 nphases=3 basefreq=60 r1=15000 x1=0 units=km normamps=0
New Linecode.LC_MRT_TRF_18_1167A_4 nphases=4 basefreq=60 r1=15000 x1=0 units=km normamps=0
New Line.Resist_MTR_TRF_18_1167A phases=1 bus1=157281.2 bus2= MRT_157281TRF_18_1167A.2 linecode=LC_MRT_TRF_18_1167A_1 length=0.001 units=km
New Reactor.TRF_18_1167A_R phases=1 bus1=ET18_1167.4 R=15 X=0 basefreq=60
New Transformer.TRF_18_1168A phases=1 windings=3 buses=[MRT_217271TRF_18_1168A.2 ET18_1168.1.4 ET18_1168.4.2] conns=[Wye Wye Wye] kvs=[13.3367912182804 0.22 0.22] kvas=[15 15 15] %loadloss=1.766667 %noloadloss=0.433333
New Linecode.LC_MRT_TRF_18_1168A_1 nphases=1 basefreq=60 r1=15000 x1=0 units=km normamps=0
New Linecode.LC_MRT_TRF_18_1168A_2 nphases=2 basefreq=60 r1=15000 x1=0 units=km normamps=0
New Linecode.LC_MRT_TRF_18_1168A_3 nphases=3 basefreq=60 r1=15000 x1=0 units=km normamps=0
New Linecode.LC_MRT_TRF_18_1168A_4 nphases=4 basefreq=60 r1=15000 x1=0 units=km normamps=0
New Line.Resist_MTR_TRF_18_1168A phases=1 bus1=217271.2 bus2= MRT_217271TRF_18_1168A.2 linecode=LC_MRT_TRF_18_1168A_1 length=0.001 units=km
New Reactor.TRF_18_1168A_R phases=1 bus1=ET18_1168.4 R=15 X=0 basefreq=60
New Transformer.TRF_18_1205A phases=1 windings=3 buses=[MRT_194341TRF_18_1205A.3 ET18_1205.1.4 ET18_1205.4.2] conns=[Wye Wye Wye] kvs=[13.3367912182804 0.22 0.22] kvas=[10 10 10] %loadloss=1.95 %noloadloss=0.5
New Linecode.LC_MRT_TRF_18_1205A_1 nphases=1 basefreq=60 r1=15000 x1=0 units=km normamps=0
New Linecode.LC_MRT_TRF_18_1205A_2 nphases=2 basefreq=60 r1=15000 x1=0 units=km normamps=0
New Linecode.LC_MRT_TRF_18_1205A_3 nphases=3 basefreq=60 r1=15000 x1=0 units=km normamps=0
New Linecode.LC_MRT_TRF_18_1205A_4 nphases=4 basefreq=60 r1=15000 x1=0 units=km normamps=0
New Line.Resist_MTR_TRF_18_1205A phases=1 bus1=194341.3 bus2= MRT_194341TRF_18_1205A.3 linecode=LC_MRT_TRF_18_1205A_1 length=0.001 units=km
New Reactor.TRF_18_1205A_R phases=1 bus1=ET18_1205.4 R=15 X=0 basefreq=60
New Transformer.TRF_18_1206A phases=1 windings=3 buses=[MRT_175941TRF_18_1206A.3 ET18_1206.1.4 ET18_1206.4.2] conns=[Wye Wye Wye] kvs=[13.3367912182804 0.22 0.22] kvas=[10 10 10] %loadloss=1.95 %noloadloss=0.5
New Linecode.LC_MRT_TRF_18_1206A_1 nphases=1 basefreq=60 r1=15000 x1=0 units=km normamps=0
New Linecode.LC_MRT_TRF_18_1206A_2 nphases=2 basefreq=60 r1=15000 x1=0 units=km normamps=0
New Linecode.LC_MRT_TRF_18_1206A_3 nphases=3 basefreq=60 r1=15000 x1=0 units=km normamps=0
New Linecode.LC_MRT_TRF_18_1206A_4 nphases=4 basefreq=60 r1=15000 x1=0 units=km normamps=0
New Line.Resist_MTR_TRF_18_1206A phases=1 bus1=175941.3 bus2= MRT_175941TRF_18_1206A.3 linecode=LC_MRT_TRF_18_1206A_1 length=0.001 units=km
New Reactor.TRF_18_1206A_R phases=1 bus1=ET18_1206.4 R=15 X=0 basefreq=60
New Transformer.TRF_18_1232A phases=1 windings=3 buses=[MRT_291721TRF_18_1232A.3 ET18_1232.1.4 ET18_1232.4.2] conns=[Wye Wye Wye] kvs=[13.3367912182804 0.22 0.22] kvas=[25 25 25] %loadloss=1.56 %noloadloss=0.36
New Linecode.LC_MRT_TRF_18_1232A_1 nphases=1 basefreq=60 r1=15000 x1=0 units=km normamps=0
New Linecode.LC_MRT_TRF_18_1232A_2 nphases=2 basefreq=60 r1=15000 x1=0 units=km normamps=0
New Linecode.LC_MRT_TRF_18_1232A_3 nphases=3 basefreq=60 r1=15000 x1=0 units=km normamps=0
New Linecode.LC_MRT_TRF_18_1232A_4 nphases=4 basefreq=60 r1=15000 x1=0 units=km normamps=0
New Line.Resist_MTR_TRF_18_1232A phases=1 bus1=291721.3 bus2= MRT_291721TRF_18_1232A.3 linecode=LC_MRT_TRF_18_1232A_1 length=0.001 units=km
New Reactor.TRF_18_1232A_R phases=1 bus1=ET18_1232.4 R=15 X=0 basefreq=60
...